*| Generated by StarRC
*|DSPF 1.3
*|DIVIDER /

.SUBCKT TEST_CELL a b
*|NET a 2.0PF
.ENDS TEST_CELL
