*|DSPF 1.0
*|DIVIDER /
*|DELIMITER :

.SUBCKT INV a b
*|GROUND_NET gnd
*|NET b 3.5PF
R1 a/node1 a/node2 12.5
C1 b gnd 2.1PF
.ENDS INV
